<!--routes>
    <flow id="EW" begin="0" end="3600" probability="0.1" from="EC" to="CW"/>
    <flow id="WE" begin="0" end="3600" probability="0.1" from="WC" to="CE"/>
    <flow id="NS" begin="0" end="3600" probability="0.1" from="NC" to="CS"/>
    < trip id="prova" depart="0" from="NC" to="CS">
</routes>-->

<routes>

    <flow id="NS" begin="0" end="3600" vehsPerHour="300"  from="NC" to="CS"/>
    <flow id="SN" begin="0" end="3600" vehsPerHour="300"  from="SC" to="CN"/>

    <flow id="NS_new" begin="0" end="3600" vehsPerHour="100"  from="NC_new" to="CS_new"/>
    <flow id="SN_new" begin="0" end="3600" vehsPerHour="100"  from="SC_new" to="CN_new"/>

    <flow id="EW" begin="0" end="3600" vehsPerHour="4500" from="EC" to="CW"/>
    <flow id="WE" begin="0" end="3600" vehsPerHour="4500" from="WC" to="CE"/>

    <flow id="EW_new" begin="0" end="3600" vehsPerHour="9000" from="EC_new" to="CW_new"/>
    <flow id="WE_new" begin="0" end="3600" vehsPerHour="9000" from="WC_new" to="CE_new"/>

    <!--flow>
    <flow id="long_EW" begin="0" end="3600" vehsPerHour="4500" from="EC" to="CW_new"/>
    <flow id="long_WE" begin="0" end="3600" vehsPerHour="9000" from="WC_new" to="CE"/>
    </flow-->

</routes>
