<?xml version="1.0" encoding="UTF-8"?>

<net version="0.27" xmlns:xsi="http://www.w3.org/2001/XMLSchema-instance" xsi:noNamespaceSchemaLocation="http://sumo.dlr.de/xsd/net_file.xsd">

    <location netOffset="100.00,50.00" convBoundary="0.00,0.00,200.00,100.00" origBoundary="-10000000000.00,-10000000000.00,10000000000.00,10000000000.00" projParameter="!"/>

    <edge id=":C_0" function="internal">
        <lane id=":C_0_0" index="0" disallow="pedestrian" speed="13.89" length="16.10" shape="95.05,58.05 95.05,41.95"/>
        <lane id=":C_0_1" index="1" disallow="pedestrian" speed="13.89" length="16.10" shape="98.35,58.05 98.35,41.95"/>
    </edge>
    <edge id=":C_2" function="internal">
        <lane id=":C_2_0" index="0" disallow="pedestrian" speed="13.89" length="16.10" shape="108.05,54.95 91.95,54.95"/>
        <lane id=":C_2_1" index="1" disallow="pedestrian" speed="13.89" length="16.10" shape="108.05,51.65 91.95,51.65"/>
    </edge>
    <edge id=":C_4" function="internal">
        <lane id=":C_4_0" index="0" disallow="pedestrian" speed="13.89" length="16.10" shape="104.95,41.95 104.95,58.05"/>
        <lane id=":C_4_1" index="1" disallow="pedestrian" speed="13.89" length="16.10" shape="101.65,41.95 101.65,58.05"/>
    </edge>
    <edge id=":C_6" function="internal">
        <lane id=":C_6_0" index="0" disallow="pedestrian" speed="13.89" length="16.10" shape="91.95,45.05 108.05,45.05"/>
        <lane id=":C_6_1" index="1" disallow="pedestrian" speed="13.89" length="16.10" shape="91.95,48.35 108.05,48.35"/>
    </edge>
    <edge id=":E_0" function="internal">
        <lane id=":E_0_0" index="0" disallow="pedestrian" speed="13.89" length="4.82" shape="200.00,48.35 201.24,49.18 201.65,50.00 201.24,50.83 200.00,51.65"/>
    </edge>
    <edge id=":N_0" function="internal">
        <lane id=":N_0_0" index="0" disallow="pedestrian" speed="13.89" length="4.82" shape="101.65,100.00 100.82,101.24 100.00,101.65 99.17,101.24 98.35,100.00"/>
    </edge>
    <edge id=":S_0" function="internal">
        <lane id=":S_0_0" index="0" disallow="pedestrian" speed="13.89" length="4.82" shape="98.35,0.00 99.18,-1.24 100.00,-1.65 100.83,-1.24 101.65,0.00"/>
    </edge>
    <edge id=":W_0" function="internal">
        <lane id=":W_0_0" index="0" disallow="pedestrian" speed="13.89" length="4.82" shape="0.00,51.65 -1.24,50.82 -1.65,50.00 -1.24,49.17 0.00,48.35"/>
    </edge>

    <tlLogic id="Crossing" type="static" programID="AllBlinking" offset="0">
        <phase duration="10000" state="oooooooo"/>
    </tlLogic>

    <edge id="CE" from="Crossing" to="E" priority="1">
        <lane id="CE_0" index="0" disallow="pedestrian" speed="13.89" length="91.95" shape="108.05,45.05 200.00,45.05"/>
        <lane id="CE_1" index="1" disallow="pedestrian" speed="13.89" length="91.95" shape="108.05,48.35 200.00,48.35"/>
    </edge>
    <edge id="CN" from="Crossing" to="N" priority="1">
        <lane id="CN_0" index="0" disallow="pedestrian" speed="13.89" length="41.95" shape="104.95,58.05 104.95,100.00"/>
        <lane id="CN_1" index="1" disallow="pedestrian" speed="13.89" length="41.95" shape="101.65,58.05 101.65,100.00"/>
    </edge>
    <edge id="CS" from="Crossing" to="S" priority="1">
        <lane id="CS_0" index="0" disallow="pedestrian" speed="13.89" length="41.95" shape="95.05,41.95 95.05,0.00"/>
        <lane id="CS_1" index="1" disallow="pedestrian" speed="13.89" length="41.95" shape="98.35,41.95 98.35,0.00"/>
    </edge>
    <edge id="CW" from="Crossing" to="W" priority="1">
        <lane id="CW_0" index="0" disallow="pedestrian" speed="13.89" length="91.95" shape="91.95,54.95 0.00,54.95"/>
        <lane id="CW_1" index="1" disallow="pedestrian" speed="13.89" length="91.95" shape="91.95,51.65 0.00,51.65"/>
    </edge>
    <edge id="EC" from="E" to="Crossing" priority="1">
        <lane id="EC_0" index="0" disallow="pedestrian" speed="13.89" length="91.95" shape="200.00,54.95 108.05,54.95"/>
        <lane id="EC_1" index="1" disallow="pedestrian" speed="13.89" length="91.95" shape="200.00,51.65 108.05,51.65"/>
    </edge>
    <edge id="NC" from="N" to="Crossing" priority="1">
        <lane id="NC_0" index="0" disallow="pedestrian" speed="13.89" length="41.95" shape="95.05,100.00 95.05,58.05"/>
        <lane id="NC_1" index="1" disallow="pedestrian" speed="13.89" length="41.95" shape="98.35,100.00 98.35,58.05"/>
    </edge>
    <edge id="SC" from="S" to="Crossing" priority="1">
        <lane id="SC_0" index="0" disallow="pedestrian" speed="13.89" length="41.95" shape="104.95,0.00 104.95,41.95"/>
        <lane id="SC_1" index="1" disallow="pedestrian" speed="13.89" length="41.95" shape="101.65,0.00 101.65,41.95"/>
    </edge>
    <edge id="WC" from="W" to="Crossing" priority="1">
        <lane id="WC_0" index="0" disallow="pedestrian" speed="13.89" length="91.95" shape="0.00,45.05 91.95,45.05"/>
        <lane id="WC_1" index="1" disallow="pedestrian" speed="13.89" length="91.95" shape="0.00,48.35 91.95,48.35"/>
    </edge>
    
    <junction id="Crossing" type="traffic_light" x="100.00" y="50.00" incLanes="NC_0 NC_1 EC_0 EC_1 SC_0 SC_1 WC_0 WC_1" intLanes=":C_0_0 :C_0_1 :C_2_0 :C_2_1 :C_4_0 :C_4_1 :C_6_0 :C_6_1" shape="93.45,58.05 106.55,58.05 108.05,56.55 108.05,43.45 106.55,41.95 93.45,41.95 91.95,43.45 91.95,56.55">
        <request index="0" response="00000000" foes="11001100" cont="0"/>
        <request index="1" response="00000000" foes="11001100" cont="0"/>
        <request index="2" response="00110011" foes="00110011" cont="0"/>
        <request index="3" response="00110011" foes="00110011" cont="0"/>
        <request index="4" response="00000000" foes="11001100" cont="0"/>
        <request index="5" response="00000000" foes="11001100" cont="0"/>
        <request index="6" response="00110011" foes="00110011" cont="0"/>
        <request index="7" response="00110011" foes="00110011" cont="0"/>
    </junction>
    <junction id="E" type="unregulated" x="200.00" y="50.00" incLanes="CE_0 CE_1" intLanes=":E_0_0" shape="200.00,50.05 200.00,43.45 200.00,49.95"/>
    <junction id="N" type="unregulated" x="100.00" y="100.00" incLanes="CN_0 CN_1" intLanes=":N_0_0" shape="99.95,100.00 106.55,100.00 100.05,100.00"/>
    <junction id="S" type="unregulated" x="100.00" y="0.00" incLanes="CS_0 CS_1" intLanes=":S_0_0" shape="100.05,0.00 93.45,0.00 99.95,0.00"/>
    <junction id="W" type="unregulated" x="0.00" y="50.00" incLanes="CW_0 CW_1" intLanes=":W_0_0" shape="0.00,49.95 0.00,56.55 0.00,50.05"/>

    <connection from="CE" to="EC" fromLane="1" toLane="1" via=":E_0_0" dir="t" state="M"/>
    <connection from="CN" to="NC" fromLane="1" toLane="1" via=":N_0_0" dir="t" state="M"/>
    <connection from="CS" to="SC" fromLane="1" toLane="1" via=":S_0_0" dir="t" state="M"/>
    <connection from="CW" to="WC" fromLane="1" toLane="1" via=":W_0_0" dir="t" state="M"/>
    <connection from="EC" to="CW" fromLane="0" toLane="0" via=":C_2_0" tl="Crossing" linkIndex="2" dir="s" state="o"/>
    <connection from="EC" to="CW" fromLane="1" toLane="1" via=":C_2_1" tl="Crossing" linkIndex="3" dir="s" state="o"/>
    <connection from="NC" to="CS" fromLane="0" toLane="0" via=":C_0_0" tl="Crossing" linkIndex="0" dir="s" state="o"/>
    <connection from="NC" to="CS" fromLane="1" toLane="1" via=":C_0_1" tl="Crossing" linkIndex="1" dir="s" state="o"/>
    <connection from="SC" to="CN" fromLane="0" toLane="0" via=":C_4_0" tl="Crossing" linkIndex="4" dir="s" state="o"/>
    <connection from="SC" to="CN" fromLane="1" toLane="1" via=":C_4_1" tl="Crossing" linkIndex="5" dir="s" state="o"/>
    <connection from="WC" to="CE" fromLane="0" toLane="0" via=":C_6_0" tl="Crossing" linkIndex="6" dir="s" state="o"/>
    <connection from="WC" to="CE" fromLane="1" toLane="1" via=":C_6_1" tl="Crossing" linkIndex="7" dir="s" state="o"/>

    <connection from=":C_0" to="CS" fromLane="0" toLane="0" dir="s" state="M"/>
    <connection from=":C_0" to="CS" fromLane="1" toLane="1" dir="s" state="M"/>
    <connection from=":C_2" to="CW" fromLane="0" toLane="0" dir="s" state="M"/>
    <connection from=":C_2" to="CW" fromLane="1" toLane="1" dir="s" state="M"/>
    <connection from=":C_4" to="CN" fromLane="0" toLane="0" dir="s" state="M"/>
    <connection from=":C_4" to="CN" fromLane="1" toLane="1" dir="s" state="M"/>
    <connection from=":C_6" to="CE" fromLane="0" toLane="0" dir="s" state="M"/>
    <connection from=":C_6" to="CE" fromLane="1" toLane="1" dir="s" state="M"/>
    <connection from=":E_0" to="EC" fromLane="0" toLane="1" dir="s" state="M"/>
    <connection from=":N_0" to="NC" fromLane="0" toLane="1" dir="s" state="M"/>
    <connection from=":S_0" to="SC" fromLane="0" toLane="1" dir="s" state="M"/>
    <connection from=":W_0" to="WC" fromLane="0" toLane="1" dir="s" state="M"/>

</net>
