<!--routes>
    <flow id="EW" begin="0" end="3600" probability="0.1" from="EC" to="CW"/>
    <flow id="WE" begin="0" end="3600" probability="0.1" from="WC" to="CE"/>
    <flow id="NS" begin="0" end="3600" probability="0.1" from="NC" to="CS"/>
    < trip id="prova" depart="0" from="NC" to="CS">
</routes>-->

<routes>
    <flow id="EW" begin="0" end="3600" vehsPerHour="4500" from="EC" to="CW"/>
    <flow id="WE" begin="0" end="3600" vehsPerHour="4500" from="WC" to="CE"/>
    <flow id="NS" begin="0" end="3600" vehsPerHour="300"  from="NC" to="CS"/>
    <flow id="SN" begin="0" end="3600" vehsPerHour="300"  from="SC" to="CN"/>
</routes>
