<?xml version="1.0" encoding="UTF-8"?>

<edges version="0.27" xmlns:xsi="http://www.w3.org/2001/XMLSchema-instance" xsi:noNamespaceSchemaLocation="http://sumo.dlr.de/xsd/edges_file.xsd">
    <edge id="CE" from="Crossing" to="E" priority="1" numLanes="2" speed="13.89" disallow="pedestrian"/>
    <edge id="CS" from="Crossing" to="S" priority="1" numLanes="2" speed="13.89"  disallow="pedestrian"/>
    <edge id="CW" from="Crossing" to="W" priority="1" numLanes="2" speed="13.89" disallow="pedestrian"/>
    <edge id="CN" from="Crossing" to="N" priority="1" numLanes="2" speed="13.89" disallow="pedestrian"/>
    <edge id="EC" from="E" to="Crossing" priority="1" numLanes="2" speed="13.89" disallow="pedestrian"/>
    <edge id="NC" from="N" to="Crossing" priority="1" numLanes="2" speed="13.89"  disallow="pedestrian"/>
    <edge id="WC" from="W" to="Crossing" priority="1" numLanes="2" speed="13.89" disallow="pedestrian"/>
    <edge id="SC" from="S" to="Crossing" priority="1" numLanes="2" speed="13.89" disallow="pedestrian"/>
</edges>
