<?xml version="1.0" encoding="UTF-8"?>

<!-- generated on Fri 14 Apr 2017 05:53:44 PM CEST by Netedit Version 0.29.0
<?xml version="1.0" encoding="UTF-8"?>

<configuration xmlns:xsi="http://www.w3.org/2001/XMLSchema-instance" xsi:noNamespaceSchemaLocation="http://sumo.dlr.de/xsd/netedit.exeConfiguration.xsd">

    <input>
        <sumo-net-file value="data/../pedcrossing.net.xml"/>
    </input>

    <output>
        <output-file value="data/../pedcrossing.net.xml"/>
        <plain-output-prefix value="/tmp/safecop/data/pedcrossing"/>
    </output>

    <processing>
        <no-internal-links value="false"/>
        <no-turnarounds value="true"/>
        <offset.disable-normalization value="true"/>
        <lefthand value="false"/>
        <junctions.corner-detail value="0"/>
    </processing>

    <visualisation>
        <registry-viewport value="true"/>
    </visualisation>

</configuration>
-->

<edges version="0.27" xmlns:xsi="http://www.w3.org/2001/XMLSchema-instance" xsi:noNamespaceSchemaLocation="http://sumo.dlr.de/xsd/edges_file.xsd">
    <edge id="CE" from="C" to="E" priority="1" numLanes="2" speed="13.89" disallow="pedestrian"/>
    <edge id="CS" from="C" to="S" priority="1" numLanes="2" speed="13.89"  disallow="pedestrian"/>
    <edge id="CW" from="C" to="W" priority="1" numLanes="2" speed="13.89" disallow="pedestrian"/>
    <edge id="CN" from="C" to="N" priority="1" numLanes="2" speed="13.89" disallow="pedestrian"/>
    <edge id="EC" from="E" to="C" priority="1" numLanes="2" speed="13.89" disallow="pedestrian"/>
    <edge id="NC" from="N" to="C" priority="1" numLanes="2" speed="13.89"  disallow="pedestrian"/>
    <edge id="WC" from="W" to="C" priority="1" numLanes="2" speed="13.89" disallow="pedestrian"/>
    <edge id="SC" from="S" to="C" priority="1" numLanes="2" speed="13.89" disallow="pedestrian"/>
</edges>
