<?xml version="1.0" encoding="UTF-8"?>

<!-- generated on Fri 14 Apr 2017 05:53:44 PM CEST by Netedit Version 0.29.0
<?xml version="1.0" encoding="UTF-8"?>

<configuration xmlns:xsi="http://www.w3.org/2001/XMLSchema-instance" xsi:noNamespaceSchemaLocation="http://sumo.dlr.de/xsd/netedit.exeConfiguration.xsd">

    <input>
        <sumo-net-file value="data/../pedcrossing.net.xml"/>
    </input>

    <output>
        <output-file value="data/../pedcrossing.net.xml"/>
        <plain-output-prefix value="/mnt/pietro/Documenti/Poli/Progetto%20di%20Ingegneria%20Informatica/traci_pedestrian_crossing/data/pedcrossing"/>
    </output>

    <processing>
        <no-internal-links value="false"/>
        <no-turnarounds value="true"/>
        <offset.disable-normalization value="true"/>
        <lefthand value="false"/>
        <junctions.corner-detail value="0"/>
    </processing>

    <visualisation>
        <registry-viewport value="true"/>
    </visualisation>

</configuration>
-->

<nodes version="0.27" xmlns:xsi="http://www.w3.org/2001/XMLSchema-instance" xsi:noNamespaceSchemaLocation="http://sumo.dlr.de/xsd/nodes_file.xsd">
    <location netOffset="100.00,50.00" convBoundary="0.00,0.00,200.00,100.00" origBoundary="-10000000000.00,-10000000000.00,10000000000.00,10000000000.00" projParameter="!"/>

    <node id="C" x="100.00" y="50.00" type="traffic_light" tl="C"/>
    <node id="E" x="200.00" y="50.00" type="unregulated"/>
    <node id="N" x="100.00" y="100.00" type="unregulated"/>
    <node id="S" x="100.00" y="0.00" type="unregulated"/>
    <node id="W" x="0.00" y="50.00" type="unregulated"/>
	<node id="P" x="102.00" y="52.00" type="unregulated"/>
</nodes>
