<?xml version="1.0" encoding="UTF-8"?>

<tlLogics version="0.27" xmlns:xsi="http://www.w3.org/2001/XMLSchema-instance" xsi:noNamespaceSchemaLocation="http://sumo.dlr.de/xsd/tllogic_file.xsd">

    <visualisation>
        <registry-viewport value="true"/>
    </visualisation>

</configuration>
-->

<tlLogics version="0.27" xmlns:xsi="http://www.w3.org/2001/XMLSchema-instance" xsi:noNamespaceSchemaLocation="http://sumo.dlr.de/xsd/tllogic_file.xsd">
    <!--tlLogic id="C" type="static" programID="3" offset="0">
        <phase duration="10000" state="ooooo"/>
    </tlLogic>
	<tlLogic id="C" type="static" programID="1" offset="0">
		<phase duration="78" state="ggrrggrr"/>
        	<phase duration="4" state="yyrryyrr"/>
        	<phase duration="4" state="rrggrrgg"/>
        	<phase duration="4" state="rryyrryy"/>
	</tlLogic>
	<tlLogic id="C" type="static" programID="2" offset="0">
		<phase duration="4" state="ggrrggrr"/>
        	<phase duration="4" state="yyrryyrr"/>
        	<phase duration="78" state="rrggrrgg"/>
        	<phase duration="4" state="rryyrryy"/>
	</tlLogic>-->
    
</tlLogics>
