<?xml version="1.0" encoding="UTF-8"?>

<!-- generated on Fri 14 Apr 2017 05:53:44 PM CEST by Netedit Version 0.29.0
<?xml version="1.0" encoding="UTF-8"?>

<configuration xmlns:xsi="http://www.w3.org/2001/XMLSchema-instance" xsi:noNamespaceSchemaLocation="http://sumo.dlr.de/xsd/netedit.exeConfiguration.xsd">

    <input>
        <sumo-net-file value="data/../pedcrossing.net.xml"/>
    </input>

    <output>
        <output-file value="data/../pedcrossing.net.xml"/>
        <plain-output-prefix value="/mnt/pietro/Documenti/Poli/Progetto%20di%20Ingegneria%20Informatica/traci_pedestrian_crossing/data/pedcrossing"/>
    </output>

    <processing>
        <no-internal-links value="false"/>
        <no-turnarounds value="true"/>
        <offset.disable-normalization value="true"/>
        <lefthand value="false"/>
        <junctions.corner-detail value="0"/>
    </processing>

    <visualisation>
        <registry-viewport value="true"/>
    </visualisation>

</configuration>
-->

<connections version="0.27" xmlns:xsi="http://www.w3.org/2001/XMLSchema-instance" xsi:noNamespaceSchemaLocation="http://sumo.dlr.de/xsd/connections_file.xsd">
	<connection from="EC" to="CW" fromLane="0" toLane="0"/>
        <connection from="EC" to="CW" fromLane="1" toLane="1"/>
	<connection from="NC" to="CS" fromLane="0" toLane="0"/>
	<connection from="NC" to="CS" fromLane="1" toLane="1"/>
	<connection from="WC" to="CE" fromLane="0" toLane="0"/>
        <connection from="WC" to="CE" fromLane="1" toLane="1"/>
	<connection from="SC" to="CN" fromLane="0" toLane="0"/>
	<connection from="SC" to="CN" fromLane="1" toLane="1" />

</connections>
