<?xml version="1.0" encoding="UTF-8"?>

<tlLogics version="0.27" xmlns:xsi="http://www.w3.org/2001/XMLSchema-instance" xsi:noNamespaceSchemaLocation="http://sumo.dlr.de/xsd/tllogic_file.xsd">

    <tlLogic id="Crossing" type="static" programID="Balanced" offset="0">
        <phase duration="41" state="ggrrggrr"/>
        <phase duration="4"  state="yyrryyrr"/>
        <phase duration="41" state="rrggrrgg"/>
        <phase duration="4"  state="rryyrryy"/>
    </tlLogic>

    <tlLogic id="Crossing" type="static" programID="VerticalPriority" offset="0">
        <phase duration="78" state="ggrrggrr"/>
        <phase duration="4"  state="yyrryyrr"/>
        <phase duration="4"  state="rrggrrgg"/>
        <phase duration="4"  state="rryyrryy"/>
    </tlLogic>

    <tlLogic id="Crossing" type="static" programID="HorizontalPriority" offset="0">
        <phase duration="4"  state="ggrrggrr"/>
        <phase duration="4"  state="yyrryyrr"/>
        <phase duration="78" state="rrggrrgg"/>
        <phase duration="4"  state="rryyrryy"/>
    </tlLogic>
    
    <tlLogic id="Crossing_new" type="static" programID="Balanced" offset="0">
        <phase duration="41" state="ggrrggrr"/>
        <phase duration="4"  state="yyrryyrr"/>
        <phase duration="41" state="rrggrrgg"/>
        <phase duration="4"  state="rryyrryy"/>
    </tlLogic>

    <tlLogic id="Crossing_new" type="static" programID="VerticalPriority" offset="0">
        <phase duration="78" state="ggrrggrr"/>
        <phase duration="4"  state="yyrryyrr"/>
        <phase duration="4"  state="rrggrrgg"/>
        <phase duration="4"  state="rryyrryy"/>
    </tlLogic>

    <tlLogic id="Crossing_new" type="static" programID="HorizontalPriority" offset="0">
        <phase duration="4"  state="ggrrggrr"/>
        <phase duration="4"  state="yyrryyrr"/>
        <phase duration="78" state="rrggrrgg"/>
        <phase duration="4"  state="rryyrryy"/>
    </tlLogic>
    
</tlLogics>
